Version 4
SHEET 1 1016 680
WIRE 288 -64 160 -64
WIRE 160 64 160 16
WIRE 288 64 288 -64
WIRE 192 112 160 112
WIRE 112 144 48 144
WIRE 48 160 48 144
WIRE 160 240 160 160
WIRE 160 240 48 240
WIRE 192 240 192 112
WIRE 192 240 160 240
WIRE 288 240 288 144
WIRE 288 240 192 240
FLAG 160 240 0
SYMBOL nmos4 112 64 R0
SYMATTR InstName M1
SYMATTR Value2 l=0.1u w=25u
SYMBOL voltage 48 144 R0
WINDOW 123 0 0 Left 0
WINDOW 39 0 0 Left 0
SYMATTR InstName V1
SYMATTR Value 0
SYMBOL voltage 288 48 R0
WINDOW 123 0 0 Left 0
WINDOW 39 0 0 Left 0
SYMATTR InstName V2
SYMATTR Value 1.2
SYMBOL res 144 -80 R0
SYMATTR InstName R1
SYMATTR Value 1k
TEXT 56 264 Left 2 !.model Mbreakn NMOS vto=0.4 kn=430u phi=0.88 gamma=0.2 lambda=0 level=1
TEXT 56 296 Left 2 !.dc V1 0 1.2 0.01
