Version 4
SHEET 1 976 680
WIRE 144 48 48 48
WIRE 96 96 48 96
WIRE 96 128 96 96
FLAG 96 128 0
FLAG 144 128 0
FLAG 48 144 0
FLAG 0 208 0
SYMBOL nmos4 0 48 R0
SYMATTR InstName M1
SYMATTR Value2 l=0.1u w=1u
SYMBOL voltage 0 112 R0
WINDOW 123 0 0 Left 0
WINDOW 39 0 0 Left 0
SYMATTR InstName V1
SYMATTR Value 0.8
SYMBOL voltage 144 32 R0
WINDOW 123 0 0 Left 0
WINDOW 39 0 0 Left 0
SYMATTR InstName V2
SYMATTR Value 0
TEXT 64 168 Left 2 !.model nmos nmos level=1 vto=0.4 kp=430u phi=0.88 gamma=0.2 lambda=0
TEXT 64 200 Left 2 !.dc V2 0 1.2 0.01
